@<TRIPOS>MOLECULE
*****
 13 12 0 0 0
SMALL
GASTEIGER

@<TRIPOS>ATOM
      1 C           1.0354   -0.0564    0.0808 C.3     1  UNL1       -0.0649
      2 C           2.5555   -0.0553    0.0714 C.3     1  UNL1       -0.0508
      3 C           3.1296   -0.2219    1.4734 C.3     1  UNL1       -0.0135
      4 C           4.6604   -0.2307    1.5470 C.2     1  UNL1        0.0417
      5 O           5.2812   -0.1011    0.4568 O.co2   1  UNL1       -0.5498
      6 O           5.1188   -0.3699    2.7182 O.co2   1  UNL1       -0.5498
      7 H           0.6517    0.0646   -0.9372 H       1  UNL1        0.0230
      8 H           0.6455    0.7650    0.6903 H       1  UNL1        0.0230
      9 H           0.6455   -0.9978    0.4808 H       1  UNL1        0.0230
     10 H           2.9104    0.8844   -0.3681 H       1  UNL1        0.0266
     11 H           2.9104   -0.8658   -0.5761 H       1  UNL1        0.0266
     12 H           2.7702   -1.1632    1.9077 H       1  UNL1        0.0325
     13 H           2.7702    0.5914    2.1162 H       1  UNL1        0.0325
@<TRIPOS>UNITY_ATOM_ATTR
6 1
charge -1
@<TRIPOS>BOND
     1     1     2    1
     2     2     3    1
     3     3     4    1
     4     4     5   ar
     5     4     6   ar
     6     1     7    1
     7     1     8    1
     8     1     9    1
     9     2    10    1
    10     2    11    1
    11     3    12    1
    12     3    13    1
