REMARK  1 active torsions:
REMARK  status: ('A' for Active; 'I' for Inactive)
REMARK    1  A    between atoms: C1_1  and  C2_2 
ROOT
ATOM      1  C1  PPI A   1       0.171  -0.205  -0.645  0.00  0.00     0.172 C 
ATOM      2  O1  PPI A   1      -0.887   0.254  -1.004  0.00  0.00    -0.648 OA
ATOM      3  O2  PPI A   1       0.887  -0.972  -1.482  0.00  0.00    -0.648 OA
ENDROOT
BRANCH   1   4
ATOM      4  C2  PPI A   1       0.685   0.082   0.740  0.00  0.00     0.109 C 
ATOM      5  C3  PPI A   1      -0.313   0.972   1.482  0.00  0.00     0.016 C 
ENDBRANCH   1   4
TORSDOF 1
