@<TRIPOS>MOLECULE
8F76_comp_pro_step5_2.pdb
10 9 1 0 0
SMALL
NO_CHARGES


@<TRIPOS>ATOM
      1 C1        117.7440   60.1790   61.3810 C.2       1 PPI    0.0000
      2 C2        116.9200   61.3310   62.0210 C.3       1 PPI    0.0000
      3 C3        115.5600   60.9390   62.5520 C.3       1 PPI    0.0000
      4 O1        119.0010   60.2940   61.2860 O.co2     1 PPI    0.0000
      5 O2        117.1080   59.1410   60.9680 O.co2     1 PPI    0.0000
      6 H1        116.7380   62.1680   61.3130 H         1 PPI    0.0000
      7 H2        117.5970   61.6680   62.8340 H         1 PPI    0.0000
      8 H3        115.6680   60.0980   63.2700 H         1 PPI    0.0000
      9 H4        114.8180   60.6370   61.7820 H         1 PPI    0.0000
     10 H5        115.0630   61.7650   63.1050 H         1 PPI    0.0000
@<TRIPOS>BOND
     1    1    2 1
     2    1    4 2
     3    1    5 2
     4    2    6 1
     5    2    3 1
     6    2    7 1
     7    3    8 1
     8    3   10 1
     9    3    9 1
@<TRIPOS>SUBSTRUCTURE
     1 PPI     1 RESIDUE           4 F     PPI     0 ROOT
