@<TRIPOS>MOLECULE
*****
 13 12 0 0 0
SMALL
GASTEIGER

@<TRIPOS>ATOM
      1 C           1.0304   -0.0554    0.0780 C.3     1  UNL11      -0.0649
      2 C           2.5524   -0.0429    0.0825 C.3     1  UNL11      -0.0508
      3 C           3.1285   -0.2304    1.4826 C.3     1  UNL11      -0.0135
      4 C           2.7131    0.8586    2.4774 C.3     1  UNL11       0.0417
      5 O           3.0285    2.0366    2.1569 O.2     1  UNL11      -0.5498
      6 O           2.1080    0.4309    3.5027 O.co2   1  UNL11      -0.5498
      7 H           0.6524    0.0614   -0.9418 H       1  UNL11       0.0230
      8 H           0.6289    0.7651    0.6801 H       1  UNL11       0.0230
      9 H           0.6454   -0.9990    0.4791 H       1  UNL11       0.0230
     10 H           2.9098    0.8944   -0.3592 H       1  UNL11       0.0266
     11 H           2.9146   -0.8528   -0.5612 H       1  UNL11       0.0266
     12 H           4.2241   -0.2282    1.4257 H       1  UNL11       0.0325
     13 H           2.8329   -1.2131    1.8710 H       1  UNL11       0.0325
@<TRIPOS>UNITY_ATOM_ATTR
6 1
charge -1
@<TRIPOS>BOND
     1     1     2    1
     2     2     3    1
     3     3     4    1
     4     4     5    2
     5     4     6    1
     6     1     7    1
     7     1     8    1
     8     1     9    1
     9     2    10    1
    10     2    11    1
    11     3    12    1
    12     3    13    1
