REMARK  2 active torsions:
REMARK  status: ('A' for Active; 'I' for Inactive)
REMARK    1  A    between atoms: C_2  and  C_3 
REMARK    2  A    between atoms: C_3  and  C_4 
ROOT
ATOM      1  C   UNL d   1      -0.568  -0.043   0.079  0.00  0.00     0.113 C 
ENDROOT
BRANCH   1   2
ATOM      2  C   UNL d   1      -0.439   0.629  -1.283  0.00  0.00     0.006 C 
ATOM      3  C   UNL d   1      -1.776   1.155  -1.781  0.00  0.00     0.005 C 
ENDBRANCH   1   2
BRANCH   1   4
ATOM      4  C   UNL d   1       0.740  -0.601   0.650  0.00  0.00     0.172 C 
ATOM      5  O   UNL d   1       1.776  -0.450  -0.053  0.00  0.00    -0.648 OA
ATOM      6  O   UNL d   1       0.614  -1.155   1.781  0.00  0.00    -0.648 OA
ENDBRANCH   1   4
TORSDOF 2
