REMARK  1 active torsions:
REMARK  status: ('A' for Active; 'I' for Inactive)
REMARK    1  A    between atoms: C1_1  and  C2_2 
ROOT
ATOM      1  C1  PPI F   1     117.744  60.179  61.381  0.00  0.00     0.172 C 
ATOM      2  O1  PPI F   1     119.001  60.294  61.286  0.00  0.00    -0.648 OA
ATOM      3  O2  PPI F   1     117.108  59.141  60.968  0.00  0.00    -0.648 OA
ENDROOT
BRANCH   1   4
ATOM      4  C2  PPI F   1     116.920  61.331  62.021  0.00  0.00     0.109 C 
ATOM      5  C3  PPI F   1     115.560  60.939  62.552  0.00  0.00     0.016 C 
ENDBRANCH   1   4
TORSDOF 1
