REMARK  2 active torsions:
REMARK  status: ('A' for Active; 'I' for Inactive)
REMARK    1  A    between atoms: C_2  and  C_3 
REMARK    2  A    between atoms: C_3  and  C_4 
ROOT
ATOM      1  C   UNL d   1       3.130  -0.222   1.473  0.00  0.00     0.113 C 
ENDROOT
BRANCH   1   2
ATOM      2  C   UNL d   1       2.555  -0.055   0.071  0.00  0.00     0.006 C 
ATOM      3  C   UNL d   1       1.035  -0.056   0.081  0.00  0.00     0.005 C 
ENDBRANCH   1   2
BRANCH   1   4
ATOM      4  C   UNL d   1       4.660  -0.231   1.547  0.00  0.00     0.172 C 
ATOM      5  O   UNL d   1       5.281  -0.101   0.457  0.00  0.00    -0.648 OA
ATOM      6  O   UNL d   1       5.119  -0.370   2.718  0.00  0.00    -0.648 OA
ENDBRANCH   1   4
TORSDOF 2
