REMARK  2 active torsions:
REMARK  status: ('A' for Active; 'I' for Inactive)
REMARK    1  A    between atoms: C_2  and  C_3 
REMARK    2  A    between atoms: C_3  and  C_4 
ROOT
ATOM      1  C   UNL d   1       3.128  -0.230   1.483  0.00  0.00     0.113 C 
ENDROOT
BRANCH   1   2
ATOM      2  C   UNL d   1       2.552  -0.043   0.083  0.00  0.00     0.006 C 
ATOM      3  C   UNL d   1       1.030  -0.055   0.078  0.00  0.00     0.005 C 
ENDBRANCH   1   2
BRANCH   1   4
ATOM      4  C   UNL d   1       2.713   0.859   2.477  0.00  0.00     0.172 C 
ATOM      5  O   UNL d   1       3.029   2.037   2.157  0.00  0.00    -0.648 OA
ATOM      6  O   UNL d   1       2.108   0.431   3.503  0.00  0.00    -0.648 OA
ENDBRANCH   1   4
TORSDOF 2
