REMARK  1 active torsions:
REMARK  status: ('A' for Active; 'I' for Inactive)
REMARK    1  A    between atoms: C1_1  and  C2_2 
ROOT
ATOM      1  C1  PPI A   1      -0.027   0.000  -0.481  0.00  0.00     0.172 C 
ATOM      2  O1  PPI A   1      -1.231  -0.000  -0.382  0.00  0.00    -0.648 OA
ATOM      3  O2  PPI A   1       0.545   0.000  -1.695  0.00  0.00    -0.648 OA
ENDROOT
BRANCH   1   4
ATOM      4  C2  PPI A   1       0.830   0.000   0.756  0.00  0.00     0.109 C 
ATOM      5  C3  PPI A   1      -0.064   0.000   1.997  0.00  0.00     0.016 C 
ENDBRANCH   1   4
TORSDOF 1
